data_Crystal
_audit_creation_method         'generated by CrystalMaker X for macOS'
_cell_length_a                   4.234000
_cell_length_b                   3.178000
_cell_length_c                   5.984000
_cell_angle_alpha               90.000000
_cell_angle_beta                90.000000
_cell_angle_gamma               90.000000

_symmetry_space_group_name_H-M     'P n m a'

loop_
_symmetry_equiv_pos_as_xyz
'+x,+y,+z'
'1/2-x,-y,1/2+z'
'-x,1/2+y,-z'
'1/2+x,1/2-y,1/2-z'
'-x,-y,-z'
'1/2+x,+y,1/2-z'
'+x,1/2-y,+z'
'1/2-x,1/2+y,1/2+z'

loop_
_atom_site_label
_atom_site_type_symbol
_atom_site_occupancy
_atom_site_fract_x
_atom_site_fract_y
_atom_site_fract_z
 Site1  Fe 1.0  0.6665  0.25  0.4304
 Site2  Fe 1.0  0.4687  0.75  0.2053
 Site3  S 1.0  0.7885  0.75  0.6052

