data_Crystal
_audit_creation_method         'generated by CrystalMaker X for macOS'
_cell_length_a                   2.843000
_cell_length_b                   9.700000
_cell_length_c                  12.290000
_cell_angle_alpha               90.000000
_cell_angle_beta                90.000000
_cell_angle_gamma               90.000000

_symmetry_space_group_name_H-M     'C m c m'

loop_
_symmetry_equiv_pos_as_xyz
'+x,+y,+z'
'-x,-y,1/2+z'
'-x,+y,1/2-z'
'+x,-y,-z'
'-x,-y,-z'
'+x,+y,1/2-z'
'+x,-y,1/2+z'
'-x,+y,+z'
'1/2+x,1/2+y,+z'
'1/2-x,1/2-y,1/2+z'
'1/2-x,1/2+y,1/2-z'
'1/2+x,1/2-y,-z'
'1/2-x,1/2-y,-z'
'1/2+x,1/2+y,1/2-z'
'1/2+x,1/2-y,1/2+z'
'1/2-x,1/2+y,+z'

loop_
_atom_site_label
_atom_site_type_symbol
_atom_site_occupancy
_atom_site_fract_x
_atom_site_fract_y
_atom_site_fract_z
 Fe  Fe 1.0  0.0  0.0  0.0
 Fe  Fe 1.0  0.0  0.2616  0.1131
 Fe  Fe 1.0  0.0  0.5048  0.25
 O1  O 1.0  0.0  0.158  0.25
 O2  O 1.0  0.0  0.365  0.55
 O3  O 1.0  0.0  0.085  0.643

