data_Crystal
_audit_creation_method         'generated by CrystalMaker X for macOS'
_cell_length_a                   2.815000
_cell_length_b                   9.795000
_cell_length_c                  15.011000
_cell_angle_alpha               90.000000
_cell_angle_beta                90.000000
_cell_angle_gamma               90.000000

_symmetry_space_group_name_H-M     'C m c m'

loop_
_symmetry_equiv_pos_as_xyz
'+x,+y,+z'
'-x,-y,1/2+z'
'-x,+y,1/2-z'
'+x,-y,-z'
'-x,-y,-z'
'+x,+y,1/2-z'
'+x,-y,1/2+z'
'-x,+y,+z'
'1/2+x,1/2+y,+z'
'1/2-x,1/2-y,1/2+z'
'1/2-x,1/2+y,1/2-z'
'1/2+x,1/2-y,-z'
'1/2-x,1/2-y,-z'
'1/2+x,1/2+y,1/2-z'
'1/2+x,1/2-y,1/2+z'
'1/2-x,1/2+y,+z'

loop_
_atom_site_label
_atom_site_type_symbol
_atom_site_occupancy
_atom_site_fract_x
_atom_site_fract_y
_atom_site_fract_z
 Fe  Fe 1.0  0.0  0.6379  0.25
 Fe  Fe 1.0  0.0  0.1341  0.4527
 Fe  Fe 1.0  0.0  0.3959  0.3568
 O  O 1.0  0.0  0.29  0.25
 O  O 1.0  0.0  0.782  0.421
 O  O 1.0  0.0  0.043  0.332
 O  O 1.0  0.0  0.5  0.0

