data_MgSiO3-ppPv
_audit_creation_method         'generated by CrystalDiffract 6 for OS X'
_cell_length_a                   5.2560
_cell_length_b                   2.9260
_cell_length_c                  10.5660
_cell_angle_alpha               90.0000
_cell_angle_beta                90.0000
_cell_angle_gamma               90.0000

_symmetry_space_group_name_H-M     'P n m a'

loop_
_symmetry_equiv_pos_as_xyz
'+x,+y,+z'
'1/2-x,-y,1/2+z'
'-x,1/2+y,-z'
'1/2+x,1/2-y,1/2-z'
'-x,-y,-z'
'1/2+x,+y,1/2-z'
'+x,1/2-y,+z'
'1/2-x,1/2+y,1/2+z'

loop_
_atom_site_label
_atom_site_type_symbol
_atom_site_occupancy
_atom_site_fract_x
_atom_site_fract_y
_atom_site_fract_z
 Mg  Mg 1.0000  0.6266  0.2500  0.8007
 O  O 1.0000  0.0036  0.2500  0.8980
 O  O 1.0000  0.1573  0.2500  0.2823
 O  O 1.0000  0.8600  0.2500  0.4504
 Si  Si 1.0000  0.7739  0.2500  0.0499

