data_MgSiO3-pPv
_audit_creation_method         'generated by CrystalDiffract 6 for OS X'
_cell_length_a                   2.7130
_cell_length_b                   8.9040
_cell_length_c                   6.7300
_cell_angle_alpha               90.0000
_cell_angle_beta                90.0000
_cell_angle_gamma               90.0000

_symmetry_space_group_name_H-M     'C m c m'

loop_
_symmetry_equiv_pos_as_xyz
'+x,+y,+z'
'1/2+x,1/2+y,+z'
'-x,-y,1/2+z'
'1/2-x,1/2-y,1/2+z'
'-x,+y,1/2-z'
'1/2-x,1/2+y,1/2-z'
'+x,-y,-z'
'1/2+x,1/2-y,-z'
'-x,-y,-z'
'1/2-x,1/2-y,-z'
'+x,+y,1/2-z'
'1/2+x,1/2+y,1/2-z'
'+x,-y,1/2+z'
'1/2+x,1/2-y,1/2+z'
'-x,+y,+z'
'1/2-x,1/2+y,+z'
'1/2+x,1/2+y,+z'
'+x,+y,+z'
'1/2-x,1/2-y,1/2+z'
'-x,-y,1/2+z'
'1/2-x,1/2+y,1/2-z'
'-x,+y,1/2-z'
'1/2+x,1/2-y,-z'
'+x,-y,-z'
'1/2-x,1/2-y,-z'
'-x,-y,-z'
'1/2+x,1/2+y,1/2-z'
'+x,+y,1/2-z'
'1/2+x,1/2-y,1/2+z'
'+x,-y,1/2+z'
'1/2-x,1/2+y,+z'
'-x,+y,+z'

loop_
_atom_site_label
_atom_site_type_symbol
_atom_site_occupancy
_atom_site_fract_x
_atom_site_fract_y
_atom_site_fract_z
 Mg  Mg 1.0000  0.0000  0.2532  0.2500
 O1  O 1.0000  0.0000  0.9276  0.2500
 O2  O 1.0000  0.0000  0.6356  0.4413
 Si  Si 1.0000  0.0000  0.0000  0.0000

