data_SiO2-Hex
_audit_creation_method         'generated by CrystalDiffract 6 for OS X'
_cell_length_a                   5.6723
_cell_length_b                   5.6723
_cell_length_c                   3.3470
_cell_angle_alpha               90.0000
_cell_angle_beta                90.0000
_cell_angle_gamma              120.0000

_symmetry_space_group_name_H-M     'P -6 2 m'

loop_
_symmetry_equiv_pos_as_xyz
'+x,+y,+z'
'-y,+x-y,+z'
'-x+y,-x,+z'
'+x,+y,-z'
'-y,+x-y,-z'
'-x+y,-x,-z'
'+y,+x,-z'
'+x-y,-y,-z'
'-x,-x+y,-z'
'+y,+x,+z'
'+x-y,-y,+z'
'-x,-x+y,+z'

loop_
_atom_site_label
_atom_site_type_symbol
_atom_site_occupancy
_atom_site_fract_x
_atom_site_fract_y
_atom_site_fract_z
 O  O 1.0000  0.2600  0.2600  0.0000
 O  O 1.0000  0.4000  0.0000  0.5000
 Si  Si 1.0000  0.0000  0.0000  0.5000
 Si  Si 0.5000  0.3333  0.6667  0.1250

