data_SiO2-Pyrite
_audit_creation_method         'generated by CrystalDiffract 6 for OS X'
_cell_length_a                   4.5349
_cell_length_b                   4.5349
_cell_length_c                   4.5349
_cell_angle_alpha               90.0000
_cell_angle_beta                90.0000
_cell_angle_gamma               90.0000

_symmetry_space_group_name_H-M     'P a 3'

loop_
_symmetry_equiv_pos_as_xyz
'+x,+y,+z'
'+z,+x,+y'
'+y,+z,+x'
'1/2+x,+y,1/2-z'
'1/2+z,+x,1/2-y'
'1/2+y,+z,1/2-x'
'1/2-x,1/2+y,+z'
'1/2-z,1/2+x,+y'
'1/2-y,1/2+z,+x'
'-x,1/2+y,1/2-z'
'-z,1/2+x,1/2-y'
'-y,1/2+z,1/2-x'
'-x,-y,-z'
'-z,-x,-y'
'-y,-z,-x'
'1/2-x,-y,1/2+z'
'1/2-z,-x,1/2+y'
'1/2-y,-z,1/2+x'
'1/2+x,1/2-y,-z'
'1/2+z,1/2-x,-y'
'1/2+y,1/2-z,-x'
'+x,1/2-y,1/2+z'
'+z,1/2-x,1/2+y'
'+y,1/2-z,1/2+x'

loop_
_atom_site_label
_atom_site_type_symbol
_atom_site_occupancy
_atom_site_fract_x
_atom_site_fract_y
_atom_site_fract_z
 Si  Si 1.0000  0.0000  0.0000  0.0000
 O  O 1.0000  0.3860  0.3860  0.3860

