data_SiO2-Seifertite
_audit_creation_method         'generated by CrystalDiffract 6 for OS X'
_cell_length_a                   4.0490
_cell_length_b                   5.0750
_cell_length_c                   4.5380
_cell_angle_alpha               90.0000
_cell_angle_beta                90.0000
_cell_angle_gamma               90.0000

_symmetry_space_group_name_H-M     'P b c n'

loop_
_symmetry_equiv_pos_as_xyz
'+x,+y,+z'
'1/2-x,1/2-y,1/2+z'
'-x,+y,1/2-z'
'1/2+x,1/2-y,-z'
'-x,-y,-z'
'1/2+x,1/2+y,1/2-z'
'+x,-y,1/2+z'
'1/2-x,1/2+y,+z'

loop_
_atom_site_label
_atom_site_type_symbol
_atom_site_occupancy
_atom_site_fract_x
_atom_site_fract_y
_atom_site_fract_z
 O  O 1.0000  0.2576  0.3870  0.4201
 Si  Si 1.0000  0.0000  0.1502  0.2500

