data_Forsterite_I_Single-Crystal_XRD
_audit_creation_method         'generated by CrystalMaker X for macOS'
_cell_length_a                   4.523200(5)
_cell_length_b                   9.274000(50)
_cell_length_c                   5.546700(7)
_cell_angle_alpha               90.000000(0)
_cell_angle_beta                90.000000(0)
_cell_angle_gamma               90.000000(0)

_symmetry_space_group_name_H-M     'P b n m'

loop_
_symmetry_equiv_pos_as_xyz
'+x,+y,+z'
'1/2+x,1/2-y,-z'
'-x,-y,1/2+z'
'1/2-x,1/2+y,1/2-z'
'-x,-y,-z'
'1/2-x,1/2+y,+z'
'+x,+y,1/2-z'
'1/2+x,1/2-y,1/2+z'

loop_
_atom_site_label
_atom_site_type_symbol
_atom_site_occupancy
_atom_site_fract_x
_atom_site_fract_y
_atom_site_fract_z
_atom_site_U_iso_or_equiv
 Mg1  Mg 1.0  0.00000000(0)  0.00000000(0)  0.00000000(0)  0.00700
 Mg2  Mg 1.0  0.98450000(50000)  0.27420000(60000)  0.25000000(0)  0.00750
 O1  O 1.0  0.76750000(120000)  0.08990000(100000)  0.25000000(0)  0.00750
 O2  O 1.0  0.22710000(120000)  0.44070000(100000)  0.25000000(0)  0.00610
 O3  O 1.0  0.26380000(80000)  0.16920000(70000)  0.02330000(60000)  0.00810
 Si  Si 1.0  0.42500000(50000)  0.09640000(50000)  0.25000000(0)  0.00700

