data_0001231
_audit_creation_method         'generated by CrystalMaker 9.2.8'
_publ_section_comment
;
American Mineralogist Crystal Structures Database code: 0001231


Chemical formula (sum): Mg4 Si4 O12


Crystal structure data from: Angel R J, Finger L W, Hazen R M, Kanzaki M,
 Weidner D J, Liebermann R C, Veblen D R (1989)  Structure and twinning o
f single-crystal MgSiO3 garnet synthesized at 17 GPa and 1800 C Note: maj
oritic or majorite-like. American Mineralogist 74:509-512

;
_cell_length_a                  11.5010(0)
_cell_length_b                  11.5010(0)
_cell_length_c                  11.4800(0)
_cell_angle_alpha               90.0000(0)
_cell_angle_beta                90.0000(0)
_cell_angle_gamma               90.0000(0)


loop_
_symmetry_equiv_pos_as_xyz
'+x,+y,+z'
'1/2+x,1/2+y,1/2+z'
'1/4+y,3/4-x,1/4-z'
'3/4+y,1/4-x,3/4-z'
'1/4-y,3/4+x,1/4+z'
'3/4-y,1/4+x,3/4+z'
'1/2+x,+y,1/2-z'
'+x,1/2+y,-z'
'1/2-x,-y,1/2+z'
'-x,1/2-y,+z'
'1/4-y,1/4+x,3/4-z'
'3/4-y,3/4+x,1/4-z'
'1/4+y,1/4-x,3/4+z'
'3/4+y,3/4-x,1/4+z'
'-x,-y,-z'
'1/2-x,1/2-y,1/2-z'

loop_
_atom_site_label
_atom_site_type_symbol
_atom_site_occupancy
_atom_site_fract_x
_atom_site_fract_y
_atom_site_fract_z
_atom_site_U_iso_or_equiv
  MgD1    Mg 1.0000      0.1253    0.0112    0.2587    0.0168
  MgD2    Mg 1.0000      0.0000    0.2500    0.6258    0.0195
 MgOc1    Mg 0.8000      0.0000    0.0000    0.5000    0.0028
 MgOc1    Si 0.2000      0.0000    0.0000    0.5000    0.0028
    O1    O  1.0000      0.0282    0.0550    0.6633    0.0111
    O2    O  1.0000      0.0380   -0.0471    0.8562    0.0166
    O3    O  1.0000      0.2195    0.1023    0.8021    0.0162
    O4    O  1.0000      0.2150   -0.0894    0.7000    0.0125
    O5    O  1.0000     -0.0588    0.1617    0.4680    0.0113
    O6    O  1.0000     -0.1040    0.2080    0.7851    0.0128
 MgOc2    Si 0.8000      0.0000    0.0000    0.0000    0.0028
 MgOc2    Mg 0.2000      0.0000    0.0000    0.0000    0.0028
  SiT1    Si 1.0000      0.0000    0.2500    0.3750    0.0131
  SiT2    Si 1.0000      0.0000    0.2500    0.8750    0.0047
  SiT3    Si 1.0000      0.1249    0.0065    0.7544    0.0067

